/*--------------------------------*- C++ -*----------------------------------*\
  =========                 |
  \\      /  F ield         | OpenFOAM: The Open Source CFD Toolbox
   \\    /   O peration     | Website:  https://openfoam.org
    \\  /    A nd           | Version:  10
     \\/     M anipulation  |
\*---------------------------------------------------------------------------*/
FoamFile {
    format ascii;
    class dictionary;
    location "constant/heater";
    object fvModels;
}

// * * * * * * * * * * * * * * * * * * * * * * * * * * * * * * * * * * * * * //

energySource {
    type heatSource;

    selectionMode all;

    // W = 26.64 W
    // 50 * 50 * 
    // W/m^3 == kg/m/s^3
    q 1.0e5;
}

// ************************************************************************* //