/*--------------------------------*- C++ -*----------------------------------*\
  =========                 |
  \\      /  F ield         | OpenFOAM: The Open Source CFD Toolbox
   \\    /   O peration     | Website:  https://openfoam.org
    \\  /    A nd           | Version:  10
     \\/     M anipulation  |
\*---------------------------------------------------------------------------*/
FoamFile
{
    format      ascii;
    class       dictionary;
    location    "constant/fluid";
    object      physicalProperties;
}
// * * * * * * * * * * * * * * * * * * * * * * * * * * * * * * * * * * * * * //

thermoType
{
    type            heRhoThermo;
    mixture         pureMixture;
    transport       const;
    thermo          hConst;
    equationOfState rhoConst;
    specie          specie;
    energy          sensibleEnthalpy;
}

mixture
{
    // Water

    specie
    {
        molWeight       18.02; // Молярная масса воды в г/моль
    }

    equationOfState
    {
        rho             997.07; // Плотность воды при 25 °C в кг/м³
    }

    thermodynamics
    {
        Cp              4.18; // Удельная теплоемкость воды в кДж/(кг·°C)
        Hf              0;    // Стандартная энтальпия образца воды при 25 °C и 1 атмосфере в кДж/кг
    }

    transport
    {
        mu              1.0e-3; // Кинематическая вязкость воды в м²/s
        Pr              7;      // Число Прандтля воды при 25 °C
    }
}

// ************************************************************************* //
