/*--------------------------------*- C++ -*----------------------------------*\
  =========                 |
  \\      /  F ield         | OpenFOAM: The Open Source CFD Toolbox
   \\    /   O peration     | Website:  https://openfoam.org
    \\  /    A nd           | Version:  10
     \\/     M anipulation  |
\*---------------------------------------------------------------------------*/
FoamFile
{
    format      ascii;
    class       volVectorField;
    location    "0/fluid";
    object      U;
}
// * * * * * * * * * * * * * * * * * * * * * * * * * * * * * * * * * * * * * //

dimensions      [ 0 1 -1 0 0 0 0 ];
//              400 л в час
internalField   uniform (4.44 0 0);

boundaryField
{
    #includeEtc "caseDicts/setConstraintTypes"

    inlet_fluid
    {
        type            fixedValue;
        value           uniform (0.04 0 0);
    }
    
    outlet_fluid
    {
        type            pressureInletOutletVelocity;
        value           $internalField;
    }
    
    fluid_to_fins
    {
        type            noSlip;
    }

    walls_fluid
    {
        type            fixedValue;
        value           uniform (0 0 0);
    }
}

// ************************************************************************* //
