/*--------------------------------*- C++ -*----------------------------------*\
  =========                 |
  \\      /  F ield         | OpenFOAM: The Open Source CFD Toolbox
   \\    /   O peration     | Website:  https://openfoam.org
    \\  /    A nd           | Version:  10
     \\/     M anipulation  |
\*---------------------------------------------------------------------------*/
FoamFile {
  format ascii;
  class dictionary;
  location "system";
  object controlDict;
}

// * * * * * * * * * * * * * * * * * * * * * * * * * * * * * * * * * * * * * //

application chtMultiRegionFoam;

startFrom latestTime;

startTime 0;

stopAt endTime;

endTime 2000;

deltaT 1;

writeControl timeStep;

writeInterval 50;

purgeWrite 0;

writeFormat ascii;

writePrecision 6;

writeCompression off;

timeFormat general;

timePrecision 6;

runTimeModifiable true;

functions {

  #includeFunc cellMaxHeaterT
  #includeFunc cellMaxFinT
  #includeFunc volAvgFinTemperature
  #includeFunc volAvgHeaterTemperature
  averageTempHeaterFinInterface {
type            surfaceFieldValue;
surfaceFormat   off;
libs            ("libfieldFunctionObjects.so");
enabled         true;
writeControl    timeStep;
writeInterval   1;
log             true;
writeFields     false;
region          heater;
regionType      patch;
name            heater_to_fins;
operation       areaAverage;
mode            magnitude;
fields
(
	T
);
  }


}

// ************************************************************************* //